TiO2
 OpenBabel08012308433D

 18 15  0  0  0  0  0  0  0  0999 V2000
   -0.0000    1.8015    2.4662 Ti  0  0  1  0  0  0  0  0  0  0  0  0
    1.4089    0.8134   12.2169 Ti  0  0  0  0  0  0  0  0  0  0  0  0
    3.0141    0.1157    7.4179 Ti  0  0  0  0  0  0  0  0  0  0  0  0
   -0.0000    3.4804    5.1479 Ti  0  0  0  0  0  0  0  0  0  0  0  0
   -0.0000    3.4804   10.4610 Ti  0  0  0  0  0  0  0  0  0  0  0  0
    3.0141    1.7402    0.6307 Ti  0  0  0  0  0  0  0  0  0  0  0  0
   -1.4906    2.6198   11.1096 O   0  6  0  0  0  0  0  0  0  0  0  0
   -1.3001    2.7298    3.4830 O   0  6  0  0  0  0  0  0  0  0  0  0
   -0.0000    1.5576   13.1436 O   0  6  0  0  0  0  0  0  0  0  0  0
   -0.0000    1.9833    6.1774 O   0  6  0  0  0  0  0  0  0  0  0  0
    1.5699    0.9064    1.3648 O   0  6  0  0  0  0  0  0  0  0  0  0
    1.6090    0.9290    8.2794 O   0  6  0  0  0  0  0  0  0  0  0  0
    0.0000    0.0000    3.2384 O   0  6  0  0  0  0  0  0  0  0  0  0
    0.0000    0.0000   11.1172 O   0  6  0  0  0  0  0  0  0  0  0  0
   -0.0000    3.4804    1.3776 O   0  6  0  0  0  0  0  0  0  0  0  0
   -0.0000    3.4804    8.5322 O   0  6  0  0  0  0  0  0  0  0  0  0
    3.0141    1.7402    6.3169 O   0  6  0  0  0  0  0  0  0  0  0  0
    3.0141    1.7402   13.2892 O   0  6  0  0  0  0  0  0  0  0  0  0
  1 15  1  6  0  0  0
  1 13  2  0  0  0  0
  1  8  1  0  0  0  0
  2  9  1  0  0  0  0
  2 18  1  0  0  0  0
  3 12  1  0  0  0  0
  4 10  1  0  0  0  0
  5  7  1  0  0  0  0
  5  2  1  0  0  0  0
  6 11  1  0  0  0  0
  8  4  1  0  0  0  0
 11  1  1  0  0  0  0
 14  2  1  0  0  0  0
 16  5  1  0  0  0  0
 17  3  1  0  0  0  0
M  CHG  8   1   4   2   4   3   4   4   4   5   4   6   4   7  -2   8  -2
M  CHG  8   9  -2  10  -2  11  -2  12  -2  13  -2  14  -2  15  -2  16  -2
M  CHG  2  17  -2  18  -2
M  END
